Mass Spectrum: Benz[a]anthracene, 10-methyl-
Formula: C19 H14
CAS: 2381-15-9
Molecular weight: 242
m/z	RELATIVE INTENSITY
9	0
35	20
36	50
37	60
38	100
39	320
40	550
41	270
42	60
43	190
44	140
45	120
46	10
47	10
48	10
49	30
50	210
51	220
52	140
53	30
54	20
55	110
56	110
57	290
58	30
59	40
60	10
61	20
62	70
63	150
64	20
65	20
66	10
67	20
68	20
69	40
70	40
71	80
72	30
73	40
74	120
75	100
76	70
77	120
78	571
79	70
80	30
81	40
82	20
83	30
84	20
85	60
86	90
87	140
88	70
89	40
90	10
91	30
92	10
93	40
94	100
95	70
96	10
97	20
98	70
99	80
100	100
101	50
102	10
103	20
104	10
105	40
106	120
107	180
108	220
109	10
110	40
111	50
112	90
113	220
114	20
115	20
116	10
117	40
118	80
119	210
120	290
121	1141
122	50
123	20
124	10
125	10
126	30
127	10
134	20
135	20
137	20
138	10
139	40
140	10
148	10
149	20
150	60
151	40
152	30
153	10
161	20
162	20
163	80
164	20
165	40
166	10
174	50
175	30
176	60
177	10
185	20
186	30
187	110
188	50
189	130
190	30
191	10
198	30
199	30
200	90
201	30
202	90
203	30
211	80
212	40
213	260
214	60
215	430
216	90
217	10
223	20
224	120
225	70
226	500
227	110
228	30
229	10
235	30
236	20
237	250
238	90
239	1521
240	450
241	1842
242	9999
243	2032
244	200
245	20
246	10
