Mass Spectrum: Benzo[b]fluoranthene
Formula: C20 H12
CAS: 205-99-2
Molecular weight: 252
Origin: Japan AIST/NIMC Database- Spectrum MS-NW-7967
m/z	RELATIVE INTENSITY
39	20
50	10
51	20
62	20
63	30
74	50
75	30
76	10
77	10
78	20
82	20
83	60
84	60
85	10
86	40
87	70
88	30
93	10
98	40
99	119
100	179
101	40
105	10
106	10
110	30
111	169
112	549
113	699
114	10
117	10
118	10
122	20
123	99
124	509
125	1099
126	1709
127	40
134	10
135	10
146	10
149	10
150	30
151	10
161	10
163	10
173	10
174	40
175	10
176	10
185	10
186	10
187	20
197	10
198	50
199	40
200	90
201	30
202	50
203	10
209	10
210	10
211	30
212	20
213	30
214	10
221	20
222	90
223	99
224	299
225	199
226	179
227	30
235	10
236	10
237	20
238	10
245	10
246	50
247	70
248	419
249	319
250	1829
251	649
252	9999
253	2169
254	249
255	20
