Mass Spectrum: Benzo[ghi]perylene
Formula: C22 H12
CAS: 191-24-2
Molecular weight: 276
Origin: Japan AIST/NIMC Database- Spectrum MS-NW-3209
m/z	RELATIVE INTENSITY
27	10
28	10
39	20
43	10
50	20
51	20
55	10
57	10
62	20
63	40
74	60
75	30
77	10
83	10
85	10
86	50
87	50
91	99
92	80
97	10
98	70
99	60
100	20
105	20
106	20
109	10
110	50
111	139
112	109
113	50
117	20
118	10
122	50
123	209
124	419
125	379
126	50
133	10
134	30
135	199
136	779
137	1759
138	2369
139	70
146	30
147	20
148	20
149	30
150	40
158	10
159	10
161	10
170	10
171	10
174	10
185	10
187	10
197	10
198	30
199	10
200	10
209	10
211	10
220	10
221	20
222	70
223	40
224	60
225	20
226	10
233	10
234	10
235	20
236	10
237	10
243	40
244	10
245	20
246	70
247	60
248	149
249	70
250	90
251	30
252	289
253	60
269	10
270	70
271	70
272	379
273	309
274	1559
275	989
276	9999
277	2399
278	279
279	20
