Mass Spectrum: Benzo[k]fluoranthene
Formula: C20 H12
CAS: 207-08-9
Molecular weight: 252
Origin: NIST Mass Spectrometry Data Center, 1990.
m/z	RELATIVE INTENSITY
74	117
75	98
86	97
87	137
98	114
99	185
100	187
101	95
111	317
112	732
113	843
124	750
125	1235
126	1647
198	100
200	120
222	136
223	136
224	401
225	227
226	210
247	103
248	563
249	425
250	2092
251	814
252	9999
253	2115
254	228
