Mass Spectrum: Benzo[ghi]fluoranthene
Formula: C18 H10
CAS: 203-12-3
Molecular weight: 226
Origin: AIR POLLUTION CONT. DIVN., TUNNEY'S PASTURE, OTTAWA, CANADA
m/z	RELATIVE INTENSITY
38	7
39	33
41	10
42	12
43	14
44	5
45	3
46	2
49	2
50	18
51	23
52	6
53	5
55	4
56	4
57	5
61	15
62	50
63	79
64	7
65	3
66	2
67	5
68	2
69	2
70	3
71	3
72	2
73	20
74	163
75	134
76	33
77	14
78	7
79	5
80	2
81	3
82	2
84	93
85	21
86	109
87	216
88	43
89	11
91	5
92	4
93	3
94	4
97	5
98	130
99	495
100	516
101	23
102	4
103	4
104	4
105	4
106	3
108	14
109	15
110	66
111	523
112	2519
113	3500
114	69
115	4
116	4
117	4
120	9
121	10
122	85
123	68
124	27
125	19
126	23
127	4
132	4
133	11
134	32
135	32
136	7
137	9
138	4
139	4
143	4
144	4
145	5
146	41
147	28
148	19
149	38
150	72
151	21
152	9
158	14
159	14
160	4
161	16
162	11
163	15
164	3
165	3
168	5
169	4
170	14
171	18
172	14
173	29
174	112
175	37
176	22
177	5
178	4
182	4
183	4
184	4
185	18
186	18
187	36
188	9
189	9
196	18
197	63
198	276
199	156
200	186
201	32
202	14
210	4
211	5
219	5
220	30
221	126
222	589
223	815
224	2961
225	1900
226	9999
227	2784
228	283
229	22
