Mass Spectrum: Chrysene
Formula: C17 H12
CAS: 2381-21-7
Molecular weight: 216
Origin: NIST Mass Spectrometry Data Center, 1994
m/z	RELATIVE INTENSITY
50	8
51	8
62	8
63	14
74	18
75	24
76	18
77	8
86	8
87	29
88	43
94	8
98	14
99	29
100	84
101	123
107	8
110	8
112	94
113	202
114	178
122	8
123	8
126	8
149	8
150	18
151	8
152	8
162	8
163	8
174	8
175	8
176	8
187	14
188	8
189	8
198	14
199	14
200	39
201	18
202	34
203	8
222	10
223	14
224	69
225	56
226	292
227	127
228	999
229	197
230	17
