Mass Spectrum: Coronene
Formula: C17 H12
CAS: 2381-21-7
Molecular weight: 216
Origin: NIST Mass Spectrometry Data Center, 1994
m/z	RELATIVE INTENSITY
40	44
50	54
63	67
68	74
76	82
86	87
96	98
1	100
17	110
111	1
112	116
117	122
1	123
124	3
125	129
130	134
135	13
136	15
137	3
138	142
143	1
144	146
1	147
23	148
149	222
150	320
151	12
154	155
156	1
157	4
158	161
1	162
163	167
168	1
169	2
170	1
174	175
187	197
199	220
221	222
1	223
224	233
244	245
246	1
247	1
248	1
257	258
261	268
1	269
270	3
271	1
272	2
273	274
275	276
277	283
284	285
287	288
291	292
2	293
294	15
295	15
296	54
297	49
298	168
299	101
300	999
301	248
302	42
303	5
