Mass Spectrum: Indeno[1,2,3-cd]pyrene
Formula: C22 H12
CAS: 193-39-5
Molecular weight: 276
Origin: NIST Mass Spectrometry Data Center, 1990.
m/z	RELATIVE INTENSITY
28	867
32	319
91	88
111	223
112	212
113	120
123	324
124	604
125	599
135	277
136	967
137	1713
138	1900
224	125
248	295
272	497
273	335
274	1979
275	1052
276	9999
277	2286
278	282
