Mass Spectrum: Pyrene
Formula: C16 H10
CAS: 129-00-0
Molecular weight: 202
Origin: Japan AIST/NIMC Database- Spectrum MS-NW- 129
m/z	RELATIVE INTENSITY
39	10
50	20
51	30
62	30
63	50
67	10
74	90
75	90
76	20
77	10
85	10
86	40
87	169
88	259
98	60
99	129
100	659
101	999
102	20
104	10
110	30
111	30
122	30
123	30
124	10
125	10
126	20
134	10
135	10
146	10
149	40
150	119
151	70
152	30
161	10
162	10
163	40
164	10
173	20
174	169
175	129
176	80
177	10
187	10
197	10
198	179
199	269
200	1529
201	1409
202	9999
203	1709
204	159
